[General]
sim-time-limit = 144000s
cpu-time-limit = 144000s
total-stack = 7MiB
cmdenv-express-mode = true
cmdenv-event-banners = true
cmdenv-performance-display = false
record-eventlog = true

network = Simulation01
*.enter.intervalTime = exponential(10.0s)
*.wait.forkNumber = 2
*.doctor[*].serviceTime = exponential(8.0s)
num-rngs = 1

