[General]
sim-time-limit = 144000s
cpu-time-limit = 144000s
total-stack = 7MiB
cmdenv-express-mode = true
cmdenv-event-banners = true
cmdenv-performance-display = false
record-eventlog = true

network = Simulation01
num-rngs = 1
*.enter.intervalTime = exponential(10.0s)
*.wait.forkNumber = 2
*.doctor[*].serviceTime = exponential(8.0s)

[Config Run1]
num-rngs = 2
*.enter[*].rng-0 = 0
*.doctor[*].rng-0 = 1
